/*--------------------------------*- C++ -*----------------------------------*\
| =========                 |                                                 |
| \\      /  F ield         | OpenFOAM: The Open Source CFD Toolbox           |
|  \\    /   O peration     | Version:  2.3.0                                 |
|   \\  /    A nd           | Web:      www.OpenFOAM.org                      |
|    \\/     M anipulation  |                                                 |
\*---------------------------------------------------------------------------*/
FoamFile
{
    version     2.0;
    format      ascii;
    class       dictionary;
    object      initialConditions;
}

// * * * * * * * * * * * * * * * * * * * * * * * * * * * * * * * * * * * * * //

Ttr       10000;
Tve       300;

pressure  50000;

velocityField  (0 0 0);

Y_O2      0.66667;
Y_O       0.33333;
Y_O2+     0;
Y_O+      0;
Y_e-      0;
  


// * * * * * * * * * * * * * * * * * * * * * * * * * * * * * * * * * * * * * //
