/*--------------------------------*- C++ -*----------------------------------*\
  =========                 |
  \\      /  F ield         | OpenFOAM: The Open Source CFD Toolbox
   \\    /   O peration     | Website:  https://openfoam.org
    \\  /    A nd           | Version:  7  
     \\/     M anipulation  |
\*---------------------------------------------------------------------------*/
FoamFile
{
    version         2;
    format          ascii;
    class           dictionary;
    location        "constant";
    object          chemistryProperties;
}
// * * * * * * * * * * * * * * * * * * * * * * * * * * * * * * * * * * * * * //

chemistryType
{
    solver            ode;
}

chemistry           on;

initialChemicalTimeStep 1e-08;

EulerImplicitCoeffs
{
    cTauChem        1;
    equilibriumRateLimiter off;
}

odeCoeffs
{
    solver          seulex;
    absTol          1e-8;
    relTol          0.1;
}

#include "reactions"

// ************************************************************************* //
