/*--------------------------------*- C++ -*----------------------------------*\
  =========                 |
  \\      /  F ield         | OpenFOAM: The Open Source CFD Toolbox
   \\    /   O peration     | Website:  https://openfoam.org
    \\  /    A nd           | Version:  7  
     \\/     M anipulation  |
\*---------------------------------------------------------------------------*/
FoamFile
{
    version     2.0;
    format      ascii;
    class       dictionary;
    location    "system";
    object      fvSolution;
}
// * * * * * * * * * * * * * * * * * * * * * * * * * * * * * * * * * * * * * //

solvers
{
    "(rho|rhoU|rhoE)"
    {
        solver          diagonal;
    }

    U
    {
        solver          smoothSolver;
        smoother        GaussSeidel;
        nSweeps         2;
        tolerance       1e-09;
        relTol          0.01;
    }

    "(h|e).*"
    {
        $U;
        tolerance       1e-10;
        relTol          0;
    }

    "(Yi|.*)" 
    {
        solver          PBiCGStab;
        preconditioner  DIC;
        tolerance       1e-12;
        relTol          0;
    }
    
    "(k|omega|epsilon)"
    {
    	$U;
        tolerance       1e-12;
        relTol          1e-7;
    }
}


// ************************************************************************* //
