/*--------------------------------*- C++ -*----------------------------------*\
  =========                 |
  \\      /  F ield         | OpenFOAM: The Open Source CFD Toolbox
   \\    /   O peration     | Website:  https://openfoam.org
    \\  /    A nd           | Version:  7  
     \\/     M anipulation  |
\*---------------------------------------------------------------------------*/
FoamFile
{
    version     2.0;
    format      ascii;
    class       dictionary;
    location    "system";
    object      setFieldsDict;
}
// * * * * * * * * * * * * * * * * * * * * * * * * * * * * * * * * * * * * * //

defaultFieldValues
(
    volVectorFieldValue U (0 0 0)
    volScalarFieldValue T 336.924
    volScalarFieldValue p 100000
    volScalarFieldValue N2 1
    volScalarFieldValue O2 0
);

regions
(
    boxToCell
    {
        box (0 -1 -1) (5 1 1);
        fieldValues
        (
            volScalarFieldValue T 307.886
            volScalarFieldValue p 10000
	    volScalarFieldValue N2 0
	    volScalarFieldValue O2 1
        );
    }
);


// ************************************************************************* //
