/*--------------------------------*- C++ -*----------------------------------*\
| =========                 |                                                 |
| \\      /  F ield         | OpenFOAM: The Open Source CFD Toolbox           |
|  \\    /   O peration     | Version:  2.3.0                                 |
|   \\  /    A nd           | Web:      www.OpenFOAM.org                      |
|    \\/     M anipulation  |                                                 |
\*---------------------------------------------------------------------------*/
FoamFile
{
    version     2.0;
    format      ascii;
    class       dictionary;
    location    "system";
    object      probes;
}
// * * * * * * * * * * * * * * * * * * * * * * * * * * * * * * * * * * * * * //

probes
{
    type		probes;
    functionObjectLibs	("libsampling.so");
    enabled		true;
    writeControl	timeStep;
    writeInterval	1;

    fields
    (
        O
        O2
        O+
        O2+
        e-

        nD_O
        nD_O2
        nD_O+
        nD_O2+
        nD_e-
        
        Tt
        Tv

	heRelaxationSource
    );

    probeLocations
    (
        (5e-6 5e-6 5e-6)
    );

}
