/*--------------------------------*- C++ -*----------------------------------*\
| =========                 |                                                 |
| \\      /  F ield         | OpenFOAM: The Open Source CFD Toolbox           |
|  \\    /   O peration     | Version:  2.3.0                                 |
|   \\  /    A nd           | Web:      www.OpenFOAM.org                      |
|    \\/     M anipulation  |                                                 |
\*---------------------------------------------------------------------------*/
FoamFile
{
    version     2.0;
    format      ascii;
    class       dictionary;
    location    "constant";
    object      hTCReactionsEarth93_Shatalov;
}
// * * * * * * * * * * * * * * * * * * * * * * * * * * * * * * * * * * * * * //

/*
Rate constants for O2 dissociation at high temperature from Shatalov's
empirical model.
See:
    "Investigation of oxygen dissociation and vibrational relaxation
    at temperatures 4000-10800 K".
    L. B. Ibraguimova, A. L. Sergievskaya, V. Yu. Levashov,
    O. P. Shatalov, Yu. V. Tunik, and I. E. Zabelinskii.
    http://dx.doi.org/10.1063/1.4813070
*/

species
(
    O2
    O
);
  
reactions
{
    oxygenTBReactionShatalovLowT
    {
        type     irreversiblethirdBodyShatalovReaction;
        reaction "O2 + M = 2O + M";
        controlT oxygenDissociationLowT;
        A        2.0e12;
        beta     0.3;
        Th       2238;
        Ta       59380;
        coeffs
        (
            ("O2" 1.0)
            ("O" 3.5)
        );
    }

    oxygenTBReactionShatalovHighT
    {
        type     irreversiblethirdBodyArrheniusReaction;
        reaction "O2 + M = 2O + M";
        controlT oxygenDissociationHighT;
        A        3.87e24;
        beta     -3.1;
        Ta       59380;
        coeffs
        (
            ("O2" 1.0)
            ("O" 3.5)
        );
    }
}

