/*--------------------------------*- C++ -*----------------------------------*\
  =========                 |
  \\      /  F ield         | OpenFOAM: The Open Source CFD Toolbox
   \\    /   O peration     | Website:  https://openfoam.org
    \\  /    A nd           | Version:  dev
     \\/     M anipulation  |
\*---------------------------------------------------------------------------*/
FoamFile
{
    version     2.0;
    format      ascii;
    class       dictionary;
    object      blockMeshDict;
}
// * * * * * * * * * * * * * * * * * * * * * * * * * * * * * * * * * * * * * //

convertToMeters 0.001;

vertices
(
    (0 -1 -1)
    (25 -1 -1)
    (25 1 -1)
    (0 1 -1)
    (0 -1 1)
    (25 -1 1)
    (25 1 1)
    (0 1 1)
);

blocks
(
    hex (0 1 2 3 4 5 6 7) (2500 1 1) simpleGrading (1 1 1)
);

edges
(
);

boundary
(
    inlet
    {
        type patch;
	inGroups (sides);
        faces
        (
            (0 4 7 3)
        );
    }
    outlet
    {
        type patch;
	inGroups (sides);
        faces
        (
            (1 2 6 5)
        );
    }
    empty
    {
        type empty;
        faces
        (
            (0 1 5 4)
            (5 6 7 4)
            (3 7 6 2)
            (0 3 2 1)
        );
    }
);

mergePatchPairs
(
);

// ************************************************************************* //
