/*--------------------------------*- C++ -*----------------------------------*\
  =========                 |
  \\      /  F ield         | OpenFOAM: The Open Source CFD Toolbox
   \\    /   O peration     | Website:  https://openfoam.org
    \\  /    A nd           | Version:  dev
     \\/     M anipulation  |
\*---------------------------------------------------------------------------*/
FoamFile
{
    version     2.0;
    format      ascii;
    class       dictionary;
    location    "system";
    object      sample;
}
// * * * * * * * * * * * * * * * * * * * * * * * * * * * * * * * * * * * * * //

type sets;
libs            ("libsampling.so");

interpolationScheme cellPoint;

setFormat       raw;

sets
(
    line
    {
        type    face;
        axis    x;
        start   (0 0 0);
        end     (25e-3 0 0);
        nPoints 4000;
    }
);

fields
(
    rho
    rho_O2

    O2
    O
        
    Tt
    Tv
	
    tauVT_O2
);


// ************************************************************************* //

