/*--------------------------------*- C++ -*----------------------------------*\
| =========                 |                                                 |
| \\      /  F ield         | OpenFOAM: The Open Source CFD Toolbox           |
|  \\    /   O peration     | Version:  2.3.0                                 |
|   \\  /    A nd           | Web:      www.OpenFOAM.org                      |
|    \\/     M anipulation  |                                                 |
\*---------------------------------------------------------------------------*/
FoamFile
{
    version     2.0;
    format      ascii;
    class       dictionary;
    location    "system";
    object      controlDict;
}
// * * * * * * * * * * * * * * * * * * * * * * * * * * * * * * * * * * * * * //

application     hy2Foam;

startFrom       latestTime;

startTime       0;

stopAt          endTime;

endTime         5e-03;

deltaT          1e-9;

writeControl    adjustableRunTime;

writeInterval   2e-04;

cycleWrite      0;

writeFormat     ascii;

writePrecision  6;

writeCompression off;

timeFormat      general;

timePrecision   10;

runTimeModifiable true;

adjustTimeStep  yes;

maxCo           0.2;

maxDeltaT       5.0e-6;

libs ("libstrathFiniteVolume.so");

functions
{
    #include "forces"
    #include "surfaceQuantities"
    #includeFunc grad(p)
}


// ************************************************************************* //
