/*--------------------------------*- C++ -*----------------------------------*\
| =========                 |                                                 |
| \\      /  F ield         | OpenFOAM: The Open Source CFD Toolbox           |
|  \\    /   O peration     | Version:  2.1.1                                 |
|   \\  /    A nd           | Web:      www.OpenFOAM.org                      |
|    \\/     M anipulation  |                                                 |
\*---------------------------------------------------------------------------*/
FoamFile
{
    version     2.0;
    format      ascii;
    class       dictionary;
    object      forces;
}

// * * * * * * * * * * * * * * * * * * * * * * * * * * * * * * * * * * * * * //

forces
{
    type forces;
    functionObjectLibs ("libstrathForces.so");
    log false;
    writeFields false;
    patches (wall obstacle);
    CofR (1.5 0 0);
    dragDir (1 0 0);
    liftDir (0 1 0);
    pitchAxis (0 0 1);
}

forceCoeffs
{
    #include "../0/include/initialConditions"
    
    type forceCoeffs;
    functionObjectLibs ("libstrathForces.so");
    log false;
    writeFields false;
    patches (wall obstacle);
    rho rhoInf;
    rhoInf $rhoInlet;
    magUInf $UxInlet;
    CofR (1.5 0 0);
    dragDir (1 0 0);
    liftDir (0 1 0);
    pitchAxis (0 0 1);
    lRef 1.998074; // see constant/transportProperties/rarefiedParameters/characteristicLength
    Aref 0.01998074; // Aref = lRef*spanwiseThickness
}

