/*--------------------------------*- C++ -*----------------------------------*\
| =========                 |                                                 |
| \\      /  F ield         | OpenFOAM: The Open Source CFD Toolbox           |
|  \\    /   O peration     | Version:  2.3.0                                 |
|   \\  /    A nd           | Web:      www.OpenFOAM.org                      |
|    \\/     M anipulation  |                                                 |
\*---------------------------------------------------------------------------*/
FoamFile
{
    version     2.0;
    format      ascii;
    class       dictionary;
    location    "constant";
    object      hTCReactionsEarth93;
}
// * * * * * * * * * * * * * * * * * * * * * * * * * * * * * * * * * * * * * //

// Chul Park
// Review of Chemical-Kinetic Problems of Future NASA Missions, I: Earth Entries
// JOURNAL OF THERMOPHYSICS AND HEAT TRANSFER
// Vol.7, No.3, July.-Sept. 1993

species
(
    O2
    O2+
    O
    O+
    e-
);

//vibTempAssociativity (0 0 0 1 2 2 1 1 2 1 1);

// * * * * * * * * * * * * * * * * * * * * * * * * * * * * * * * * * * * * * //
/* REACTIONS NO 1 TO 3               -> DISSOCIATION
   REACTION NO 4                     -> ELECTRON IMPACT DISSOCIATION
   REACTIONS NO 5 AND 6              -> EXCHANGE
   REACTIONS NO 7 AND 8              -> ELECTRON IMPACT IONIZATION
   REACTIONS NO 9 TO 11              -> ASSOCIATIVE IONIZATION
   REACTIONS NO 12 TO 19             -> CHARGE EXCHANGE                      */
// * * * * * * * * * * * * * * * * * * * * * * * * * * * * * * * * * * * * * //
  
reactions
{
    // Reaction no 1
    oxygenTBReaction
    {
        type     irreversiblethirdBodyArrheniusReaction;
        reaction "O2 + M = 2O + M";
        controlT dissociation;
        A        2.0e18;
        beta     -1.5;
        Ta       59500;
        coeffs
        (
            ("O2" 1.0)
            ("O2+" 1.0)
            ("O" 5.0)
            ("O+" 5.0)
            ("e-" 0.0)
        );
    }

    // Reaction no 7
    atomicOxygenElectronImpactIonisationReaction
    {
        type     irreversibleArrheniusReaction;
        reaction "O + e- = O+ + e- + e-";
        controlT impactIonisation; // pb fwd & rev without trick
        A        3.9e30;
        beta     -3.78;
        Ta       158500;
    }
    
    // Reaction no 10
    atomicOxygenAtomicOxygenDissociativeRecombinationReaction
    {
        type     irreversibleArrheniusReaction; // pb rev without trick
        reaction "O + O = O2+ + e-";
        controlT associativeIonisation;
        A        7.1e-01;
        beta     2.7;
        Ta       80600;
    }
}

